GEN_1_1
  BIBLE_CONVERTER

  1  0  0  0  0  0  0  0  0  0999 V2000
    0.0000    0.0000    0.0000 C   0  0  0  0  0  0  0  0  0  0  0  0
M  END
> <VERSE_TEXT>
In the beginning God created the heaven and the earth.

$$$$
GEN_1_2
  BIBLE_CONVERTER

  1  0  0  0  0  0  0  0  0  0999 V2000
    0.0000    0.0000    0.0000 C   0  0  0  0  0  0  0  0  0  0  0  0
M  END
> <VERSE_TEXT>
And the earth was without form, and void; and darkness was upon the face of the deep. And the Spirit of God moved upon the face of the waters.

$$$$
GEN_1_3
  BIBLE_CONVERTER

  1  0  0  0  0  0  0  0  0  0999 V2000
    0.0000    0.0000    0.0000 C   0  0  0  0  0  0  0  0  0  0  0  0
M  END
> <VERSE_TEXT>
And God said, Let there be light: and there was light.

$$$$
GEN_1_4
  BIBLE_CONVERTER

  1  0  0  0  0  0  0  0  0  0999 V2000
    0.0000    0.0000    0.0000 C   0  0  0  0  0  0  0  0  0  0  0  0
M  END
> <VERSE_TEXT>
And God saw the light, that it was good: and God divided the light from the darkness.

$$$$
GEN_1_5
  BIBLE_CONVERTER

  1  0  0  0  0  0  0  0  0  0999 V2000
    0.0000    0.0000    0.0000 C   0  0  0  0  0  0  0  0  0  0  0  0
M  END
> <VERSE_TEXT>
And God called the light Day, and the darkness he called Night. And the evening and the morning were the first day.

$$$$
GEN_1_6
  BIBLE_CONVERTER

  1  0  0  0  0  0  0  0  0  0999 V2000
    0.0000    0.0000    0.0000 C   0  0  0  0  0  0  0  0  0  0  0  0
M  END
> <VERSE_TEXT>
And God said, Let there be a firmament in the midst of the waters, and let it divide the waters from the waters.

$$$$
GEN_1_7
  BIBLE_CONVERTER

  1  0  0  0  0  0  0  0  0  0999 V2000
    0.0000    0.0000    0.0000 C   0  0  0  0  0  0  0  0  0  0  0  0
M  END
> <VERSE_TEXT>
And God made the firmament, and divided the waters which were under the firmament from the waters which were above the firmament: and it was so.

$$$$
GEN_1_8
  BIBLE_CONVERTER

  1  0  0  0  0  0  0  0  0  0999 V2000
    0.0000    0.0000    0.0000 C   0  0  0  0  0  0  0  0  0  0  0  0
M  END
> <VERSE_TEXT>
And God called the firmament Heaven. And the evening and the morning were the second day.

$$$$
GEN_1_9
  BIBLE_CONVERTER

  1  0  0  0  0  0  0  0  0  0999 V2000
    0.0000    0.0000    0.0000 C   0  0  0  0  0  0  0  0  0  0  0  0
M  END
> <VERSE_TEXT>
And God said, Let the waters under the heaven be gathered together unto one place, and let the dry land appear: and it was so.

$$$$
GEN_1_10
  BIBLE_CONVERTER

  1  0  0  0  0  0  0  0  0  0999 V2000
    0.0000    0.0000    0.0000 C   0  0  0  0  0  0  0  0  0  0  0  0
M  END
> <VERSE_TEXT>
And God called the dry land Earth; and the gathering together of the waters called he Seas: and God saw that it was good.

$$$$
GEN_1_11
  BIBLE_CONVERTER

  1  0  0  0  0  0  0  0  0  0999 V2000
    0.0000    0.0000    0.0000 C   0  0  0  0  0  0  0  0  0  0  0  0
M  END
> <VERSE_TEXT>
And God said, Let the earth bring forth grass, the herb yielding seed, and the fruit tree yielding fruit after his kind, whose seed is in itself, upon the earth: and it was so.

$$$$
GEN_1_12
  BIBLE_CONVERTER

  1  0  0  0  0  0  0  0  0  0999 V2000
    0.0000    0.0000    0.0000 C   0  0  0  0  0  0  0  0  0  0  0  0
M  END
> <VERSE_TEXT>
And the earth brought forth grass, and herb yielding seed after his kind, and the tree yielding fruit, whose seed was in itself, after his kind: and God saw that it was good.

$$$$
GEN_1_13
  BIBLE_CONVERTER

  1  0  0  0  0  0  0  0  0  0999 V2000
    0.0000    0.0000    0.0000 C   0  0  0  0  0  0  0  0  0  0  0  0
M  END
> <VERSE_TEXT>
And the evening and the morning were the third day.

$$$$
GEN_1_14
  BIBLE_CONVERTER

  1  0  0  0  0  0  0  0  0  0999 V2000
    0.0000    0.0000    0.0000 C   0  0  0  0  0  0  0  0  0  0  0  0
M  END
> <VERSE_TEXT>
And God said, Let there be lights in the firmament of the heaven to divide the day from the night; and let them be for signs, and for seasons, and for days, and years:

$$$$
GEN_1_15
  BIBLE_CONVERTER

  1  0  0  0  0  0  0  0  0  0999 V2000
    0.0000    0.0000    0.0000 C   0  0  0  0  0  0  0  0  0  0  0  0
M  END
> <VERSE_TEXT>
And let them be for lights in the firmament of the heaven to give light upon the earth: and it was so.

$$$$
GEN_1_16
  BIBLE_CONVERTER

  1  0  0  0  0  0  0  0  0  0999 V2000
    0.0000    0.0000    0.0000 C   0  0  0  0  0  0  0  0  0  0  0  0
M  END
> <VERSE_TEXT>
And God made two great lights; the greater light to rule the day, and the lesser light to rule the night: he made the stars also.

$$$$
GEN_1_17
  BIBLE_CONVERTER

  1  0  0  0  0  0  0  0  0  0999 V2000
    0.0000    0.0000    0.0000 C   0  0  0  0  0  0  0  0  0  0  0  0
M  END
> <VERSE_TEXT>
And God set them in the firmament of the heaven to give light upon the earth,

$$$$
GEN_1_18
  BIBLE_CONVERTER

  1  0  0  0  0  0  0  0  0  0999 V2000
    0.0000    0.0000    0.0000 C   0  0  0  0  0  0  0  0  0  0  0  0
M  END
> <VERSE_TEXT>
And to rule over the day and over the night, and to divide the light from the darkness: and God saw that it was good.

$$$$
GEN_1_19
  BIBLE_CONVERTER

  1  0  0  0  0  0  0  0  0  0999 V2000
    0.0000    0.0000    0.0000 C   0  0  0  0  0  0  0  0  0  0  0  0
M  END
> <VERSE_TEXT>
And the evening and the morning were the fourth day.

$$$$
GEN_1_20
  BIBLE_CONVERTER

  1  0  0  0  0  0  0  0  0  0999 V2000
    0.0000    0.0000    0.0000 C   0  0  0  0  0  0  0  0  0  0  0  0
M  END
> <VERSE_TEXT>
And God said, Let the waters bring forth abundantly the moving creature that hath life, and fowl that may fly above the earth in the open firmament of heaven.

$$$$
GEN_1_21
  BIBLE_CONVERTER

  1  0  0  0  0  0  0  0  0  0999 V2000
    0.0000    0.0000    0.0000 C   0  0  0  0  0  0  0  0  0  0  0  0
M  END
> <VERSE_TEXT>
And God created great whales, and every living creature that moveth, which the waters brought forth abundantly, after their kind, and every winged fowl after his kind: and God saw that it was good.

$$$$
GEN_1_22
  BIBLE_CONVERTER

  1  0  0  0  0  0  0  0  0  0999 V2000
    0.0000    0.0000    0.0000 C   0  0  0  0  0  0  0  0  0  0  0  0
M  END
> <VERSE_TEXT>
And God blessed them, saying, Be fruitful, and multiply, and fill the waters in the seas, and let fowl multiply in the earth.

$$$$
GEN_1_23
  BIBLE_CONVERTER

  1  0  0  0  0  0  0  0  0  0999 V2000
    0.0000    0.0000    0.0000 C   0  0  0  0  0  0  0  0  0  0  0  0
M  END
> <VERSE_TEXT>
And the evening and the morning were the fifth day.

$$$$
GEN_1_24
  BIBLE_CONVERTER

  1  0  0  0  0  0  0  0  0  0999 V2000
    0.0000    0.0000    0.0000 C   0  0  0  0  0  0  0  0  0  0  0  0
M  END
> <VERSE_TEXT>
And God said, Let the earth bring forth the living creature after his kind, cattle, and creeping thing, and beast of the earth after his kind: and it was so.

$$$$
GEN_1_25
  BIBLE_CONVERTER

  1  0  0  0  0  0  0  0  0  0999 V2000
    0.0000    0.0000    0.0000 C   0  0  0  0  0  0  0  0  0  0  0  0
M  END
> <VERSE_TEXT>
And God made the beast of the earth after his kind, and cattle after their kind, and every thing that creepeth upon the earth after his kind: and God saw that it was good.

$$$$
GEN_1_26
  BIBLE_CONVERTER

  1  0  0  0  0  0  0  0  0  0999 V2000
    0.0000    0.0000    0.0000 C   0  0  0  0  0  0  0  0  0  0  0  0
M  END
> <VERSE_TEXT>
And God said, Let us make man in our image, after our likeness: and let them have dominion over the fish of the sea, and over the fowl of the air, and over the cattle, and over all the earth, and over every creeping thing that creepeth upon the earth.

$$$$
GEN_1_27
  BIBLE_CONVERTER

  1  0  0  0  0  0  0  0  0  0999 V2000
    0.0000    0.0000    0.0000 C   0  0  0  0  0  0  0  0  0  0  0  0
M  END
> <VERSE_TEXT>
So God created man in his own image, in the image of God created he him; male and female created he them.

$$$$
GEN_1_28
  BIBLE_CONVERTER

  1  0  0  0  0  0  0  0  0  0999 V2000
    0.0000    0.0000    0.0000 C   0  0  0  0  0  0  0  0  0  0  0  0
M  END
> <VERSE_TEXT>
And God blessed them, and God said unto them, Be fruitful, and multiply, and replenish the earth, and subdue it: and have dominion over the fish of the sea, and over the fowl of the air, and over every living thing that moveth upon the earth.

$$$$
GEN_1_29
  BIBLE_CONVERTER

  1  0  0  0  0  0  0  0  0  0999 V2000
    0.0000    0.0000    0.0000 C   0  0  0  0  0  0  0  0  0  0  0  0
M  END
> <VERSE_TEXT>
And God said, Behold, I have given you every herb bearing seed, which is upon the face of all the earth, and every tree, in the which is the fruit of a tree yielding seed; to you it shall be for meat.

$$$$
GEN_1_30
  BIBLE_CONVERTER

  1  0  0  0  0  0  0  0  0  0999 V2000
    0.0000    0.0000    0.0000 C   0  0  0  0  0  0  0  0  0  0  0  0
M  END
> <VERSE_TEXT>
And to every beast of the earth, and to every fowl of the air, and to every thing that creepeth upon the earth, wherein there is life, I have given every green herb for meat: and it was so.

$$$$
GEN_1_31
  BIBLE_CONVERTER

  1  0  0  0  0  0  0  0  0  0999 V2000
    0.0000    0.0000    0.0000 C   0  0  0  0  0  0  0  0  0  0  0  0
M  END
> <VERSE_TEXT>
And God saw every thing that he had made, and, behold, it was very good. And the evening and the morning were the sixth day.

$$$$
GEN_2_1
  BIBLE_CONVERTER

  1  0  0  0  0  0  0  0  0  0999 V2000
    0.0000    0.0000    0.0000 C   0  0  0  0  0  0  0  0  0  0  0  0
M  END
> <VERSE_TEXT>
Thus the heavens and the earth were finished, and all the host of them.

$$$$
GEN_2_2
  BIBLE_CONVERTER

  1  0  0  0  0  0  0  0  0  0999 V2000
    0.0000    0.0000    0.0000 C   0  0  0  0  0  0  0  0  0  0  0  0
M  END
> <VERSE_TEXT>
And on the seventh day God ended his work which he had made; and he rested on the seventh day from all his work which he had made.

$$$$
GEN_2_3
  BIBLE_CONVERTER

  1  0  0  0  0  0  0  0  0  0999 V2000
    0.0000    0.0000    0.0000 C   0  0  0  0  0  0  0  0  0  0  0  0
M  END
> <VERSE_TEXT>
And God blessed the seventh day, and sanctified it: because that in it he had rested from all his work which God created and made.

$$$$
GEN_2_4
  BIBLE_CONVERTER

  1  0  0  0  0  0  0  0  0  0999 V2000
    0.0000    0.0000    0.0000 C   0  0  0  0  0  0  0  0  0  0  0  0
M  END
> <VERSE_TEXT>
These are the generations of the heavens and of the earth when they were created, in the day that the LORD God made the earth and the heavens,

$$$$
GEN_2_5
  BIBLE_CONVERTER

  1  0  0  0  0  0  0  0  0  0999 V2000
    0.0000    0.0000    0.0000 C   0  0  0  0  0  0  0  0  0  0  0  0
M  END
> <VERSE_TEXT>
And every plant of the field before it was in the earth, and every herb of the field before it grew: for the LORD God had not caused it to rain upon the earth, and there was not a man to till the ground.

$$$$
GEN_2_6
  BIBLE_CONVERTER

  1  0  0  0  0  0  0  0  0  0999 V2000
    0.0000    0.0000    0.0000 C   0  0  0  0  0  0  0  0  0  0  0  0
M  END
> <VERSE_TEXT>
But there went up a mist from the earth, and watered the whole face of the ground.

$$$$
GEN_2_7
  BIBLE_CONVERTER

  1  0  0  0  0  0  0  0  0  0999 V2000
    0.0000    0.0000    0.0000 C   0  0  0  0  0  0  0  0  0  0  0  0
M  END
> <VERSE_TEXT>
And the LORD God formed man of the dust of the ground, and breathed into his nostrils the breath of life; and man became a living soul.

$$$$
GEN_2_8
  BIBLE_CONVERTER

  1  0  0  0  0  0  0  0  0  0999 V2000
    0.0000    0.0000    0.0000 C   0  0  0  0  0  0  0  0  0  0  0  0
M  END
> <VERSE_TEXT>
And the LORD God planted a garden eastward in Eden; and there he put the man whom he had formed.

$$$$
GEN_2_9
  BIBLE_CONVERTER

  1  0  0  0  0  0  0  0  0  0999 V2000
    0.0000    0.0000    0.0000 C   0  0  0  0  0  0  0  0  0  0  0  0
M  END
> <VERSE_TEXT>
And out of the ground made the LORD God to grow every tree that is pleasant to the sight, and good for food; the tree of life also in the midst of the garden, and the tree of knowledge of good and evil.

$$$$
GEN_2_10
  BIBLE_CONVERTER

  1  0  0  0  0  0  0  0  0  0999 V2000
    0.0000    0.0000    0.0000 C   0  0  0  0  0  0  0  0  0  0  0  0
M  END
> <VERSE_TEXT>
And a river went out of Eden to water the garden; and from thence it was parted, and became into four heads.

$$$$
GEN_2_11
  BIBLE_CONVERTER

  1  0  0  0  0  0  0  0  0  0999 V2000
    0.0000    0.0000    0.0000 C   0  0  0  0  0  0  0  0  0  0  0  0
M  END
> <VERSE_TEXT>
The name of the first is Pison: that is it which compasseth the whole land of Havilah, where there is gold;

$$$$
GEN_2_12
  BIBLE_CONVERTER

  1  0  0  0  0  0  0  0  0  0999 V2000
    0.0000    0.0000    0.0000 C   0  0  0  0  0  0  0  0  0  0  0  0
M  END
> <VERSE_TEXT>
And the gold of that land is good: there is bdellium and the onyx stone.

$$$$
GEN_2_13
  BIBLE_CONVERTER

  1  0  0  0  0  0  0  0  0  0999 V2000
    0.0000    0.0000    0.0000 C   0  0  0  0  0  0  0  0  0  0  0  0
M  END
> <VERSE_TEXT>
And the name of the second river is Gihon: the same is it that compasseth the whole land of Ethiopia.

$$$$
GEN_2_14
  BIBLE_CONVERTER

  1  0  0  0  0  0  0  0  0  0999 V2000
    0.0000    0.0000    0.0000 C   0  0  0  0  0  0  0  0  0  0  0  0
M  END
> <VERSE_TEXT>
And the name of the third river is Hiddekel: that is it which goeth toward the east of Assyria. And the fourth river is Euphrates.

$$$$
GEN_2_15
  BIBLE_CONVERTER

  1  0  0  0  0  0  0  0  0  0999 V2000
    0.0000    0.0000    0.0000 C   0  0  0  0  0  0  0  0  0  0  0  0
M  END
> <VERSE_TEXT>
And the LORD God took the man, and put him into the garden of Eden to dress it and to keep it.

$$$$
GEN_2_16
  BIBLE_CONVERTER

  1  0  0  0  0  0  0  0  0  0999 V2000
    0.0000    0.0000    0.0000 C   0  0  0  0  0  0  0  0  0  0  0  0
M  END
> <VERSE_TEXT>
And the LORD God commanded the man, saying, Of every tree of the garden thou mayest freely eat:

$$$$
GEN_2_17
  BIBLE_CONVERTER

  1  0  0  0  0  0  0  0  0  0999 V2000
    0.0000    0.0000    0.0000 C   0  0  0  0  0  0  0  0  0  0  0  0
M  END
> <VERSE_TEXT>
But of the tree of the knowledge of good and evil, thou shalt not eat of it: for in the day that thou eatest thereof thou shalt surely die.

$$$$
GEN_2_18
  BIBLE_CONVERTER

  1  0  0  0  0  0  0  0  0  0999 V2000
    0.0000    0.0000    0.0000 C   0  0  0  0  0  0  0  0  0  0  0  0
M  END
> <VERSE_TEXT>
And the LORD God said, It is not good that the man should be alone; I will make him an help meet for him.

$$$$
GEN_2_19
  BIBLE_CONVERTER

  1  0  0  0  0  0  0  0  0  0999 V2000
    0.0000    0.0000    0.0000 C   0  0  0  0  0  0  0  0  0  0  0  0
M  END
> <VERSE_TEXT>
And out of the ground the LORD God formed every beast of the field, and every fowl of the air; and brought them unto Adam to see what he would call them: and whatsoever Adam called every living creature, that was the name thereof.

$$$$
